14
Lattice="3.04 0.0 0.0 0.0 5.266 0.0 0.0 0.0 30.0" Properties=species:S:1:pos:R:3
Ti 1.1216838933 -0.6717917488 11.2957174493
Ti 2.6440060331 0.2044346153 8.7209242421
Ti 1.12517763 1.0810306583 6.1461344731
Ti 2.6416838933 1.9612082512 11.2957174493
Ti 1.1240060331 2.8374346153 8.7209242421
Ti 2.64517763 3.7140306583 6.1461344731
C 2.6437327068 1.959479932 7.4637568902
C 2.6431207609 3.7155744901 9.9780914192
C 1.1237327068 4.592479932 7.4637568902
C 1.1231207609 1.0825744901 9.9780914192
O 2.6450906798 0.2034607661 5.2401828208
O 2.6429532423 0.2052789764 12.2016707051
O 1.1250906798 2.8364607661 5.2401828208
O 1.1229532423 2.8382789764 12.2016707051